Version 4
SHEET 1 1184 680
WIRE 208 -16 16 -16
WIRE 208 0 208 -16
WIRE 16 48 16 -16
WIRE 208 96 208 80
WIRE 384 96 208 96
WIRE 496 96 432 96
WIRE 208 112 208 96
WIRE 384 112 384 96
WIRE 496 112 496 96
WIRE 432 128 432 96
WIRE 16 192 16 128
WIRE 208 192 208 176
WIRE 208 192 16 192
WIRE 208 208 208 192
WIRE 384 208 384 192
WIRE 384 208 208 208
WIRE 432 208 432 176
WIRE 496 208 496 192
WIRE 496 208 432 208
WIRE 208 224 208 208
WIRE 496 224 496 208
FLAG 496 224 0
FLAG 208 224 0
SYMBOL voltage 16 32 R0
WINDOW 123 0 0 Left 0
WINDOW 39 0 0 Left 0
SYMATTR InstName V1
SYMATTR Value 5
SYMBOL res 192 -16 R0
SYMATTR InstName R1
SYMATTR Value 22Meg
SYMBOL cap 192 112 R0
SYMATTR InstName C1
SYMATTR Value {X}
SYMATTR SpiceLine IC=0
SYMBOL sw 384 208 R180
SYMATTR InstName S1
SYMATTR Value MYSW
SYMBOL voltage 496 96 R0
WINDOW 123 0 0 Left 0
WINDOW 39 0 0 Left 0
SYMATTR InstName V2
SYMATTR Value PULSE(0 5 0 1u 1u 50m 100m)
TEXT -284 214 Left 2 !.tran 200m\n.step dec param X 1p 1u 1\n.model MYSW SW(Ron=1 Roff=1Meg Vt=.5 Vh=-.4)
