Version 4
SHEET 1 880 704
WIRE -144 176 -192 176
WIRE 16 176 -64 176
WIRE 32 176 16 176
WIRE 144 176 112 176
WIRE 336 176 144 176
WIRE 480 192 400 192
WIRE 336 208 304 208
WIRE -192 272 -192 176
WIRE -112 272 -192 272
WIRE 16 272 -32 272
WIRE 32 272 16 272
WIRE 144 272 112 272
WIRE 304 272 304 208
WIRE 304 272 144 272
WIRE 304 336 304 272
WIRE 336 336 304 336
WIRE 480 352 400 352
WIRE -192 368 -192 272
WIRE -80 368 -192 368
WIRE 16 368 0 368
WIRE 32 368 16 368
WIRE 144 368 112 368
WIRE 336 368 144 368
WIRE -192 432 -192 368
FLAG -192 432 0
FLAG 368 224 0
FLAG 368 160 Vdd
FLAG -208 48 Vdd
FLAG -208 128 0
FLAG 368 384 0
FLAG 368 320 Vdd
FLAG 480 192 Out1
FLAG 480 352 Out2
FLAG 16 176 L1
FLAG 16 272 L2
FLAG 16 368 L3
FLAG 144 240 0
FLAG 144 336 0
FLAG 144 432 0
SYMBOL voltage -48 176 R90
WINDOW 123 0 0 Left 0
WINDOW 39 0 0 Left 0
SYMATTR InstName V1
SYMATTR Value SINE(0 1 75 0 0 0)
SYMBOL voltage -16 272 R90
WINDOW 123 0 0 Left 0
WINDOW 39 0 0 Left 0
SYMATTR InstName V2
SYMATTR Value SINE(0 1 75 0 0 120)
SYMBOL voltage -208 32 R0
WINDOW 123 0 0 Left 0
WINDOW 39 0 0 Left 0
SYMATTR InstName V4
SYMATTR Value 5
SYMBOL Opamps\\LT1490 368 128 R0
SYMATTR InstName U1
SYMBOL voltage 16 368 R90
WINDOW 123 0 0 Left 0
WINDOW 39 0 0 Left 0
SYMATTR InstName V3
SYMATTR Value SINE(0 1 75 0 0 -120)
SYMBOL Opamps\\LT1490 368 288 R0
SYMATTR InstName U2
SYMBOL res 128 160 R90
WINDOW 0 0 56 VBottom 2
WINDOW 3 32 56 VTop 2
SYMATTR InstName R1
SYMATTR Value 10K
SYMBOL res 128 256 R90
WINDOW 0 0 56 VBottom 2
WINDOW 3 32 56 VTop 2
SYMATTR InstName R2
SYMATTR Value 10K
SYMBOL res 128 352 R90
WINDOW 0 0 56 VBottom 2
WINDOW 3 32 56 VTop 2
SYMATTR InstName R3
SYMATTR Value 10K
SYMBOL cap 128 176 R0
SYMATTR InstName C1
SYMATTR Value 30n
SYMBOL cap 128 272 R0
SYMATTR InstName C2
SYMATTR Value 30n
SYMBOL cap 128 368 R0
SYMATTR InstName C3
SYMATTR Value 30n
TEXT 128 688 Left 2 !.tran 50m
